tests/data/state_estimation/sensor-update/sym_output_batch.json
{
    "version": "1.0",
    "type": "sym_output",
    "is_batch": true,
    "attributes": {
        "node": [
            "id",
            "energized",
            "u_pu",
            "u",
            "u_angle",
            "p",
            "q"
        ]
    },
    "data": [
        {
            "node": [
                [
                    0,
                    0,
                    0,
                    0,
                    0,
                    0,
                    0
                ],
                [
                    1,
                    1,
                    1.016856066759315,
                    20337.12133518629,
                    0.0008801588278203354,
                    1204413.206899185,
                    -2091970.044814419
                ],
                [
                    2,
                    1,
                    1.017598387170136,
                    20351.96774340271,
                    -0.001011642175403679,
                    -1203287.874455313,
                    534396.6611528599
                ],
                [
                    3,
                    0,
                    0,
                    0,
                    0,
                    0,
                    0
                ],
                [
                    4,
                    0,
                    0,
                    0,
                    0,
                    0,
                    0
                ],
                [
                    5,
                    0,
                    0,
                    0,
                    0,
                    0,
                    0
                ],
                [
                    6,
                    0,
                    0,
                    0,
                    0,
                    0,
                    0
                ]
            ]
        },
        {
            "node": [
                [
                    0,
                    0,
                    0,
                    0,
                    0,
                    0,
                    0
                ],
                [
                    1,
                    1,
                    1.021160371489411,
                    20423.20742978822,
                    0.0008827005333348063,
                    -557350.7050741836,
                    -1384262.457840845
                ],
                [
                    2,
                    1,
                    1.021893986678029,
                    20437.87973356057,
                    -0.001030126474933984,
                    557585.7323375798,
                    -188741.75841289
                ],
                [
                    3,
                    0,
                    0,
                    0,
                    0,
                    0,
                    0
                ],
                [
                    4,
                    0,
                    0,
                    0,
                    0,
                    0,
                    0
                ],
                [
                    5,
                    0,
                    0,
                    0,
                    0,
                    0,
                    0
                ],
                [
                    6,
                    0,
                    0,
                    0,
                    0,
                    0,
                    0
                ]
            ]
        }
    ]
}